[RAINGAGES]
;;Name           Format    Interval SCF      Source    
;;-------------- --------- ------ ------ ----------
1                INTENSITY 1:00     1.0      FILE       "rainseries.dat" 1          MM   

[SYMBOLS]
;;Gage           X-Coord            Y-Coord           
;;-------------- ------------------ ------------------
1                680329.153         5647115.429       

[FILES]
;;Interfacing Files


[PROFILES]
;;Name           Links     
;;-------------- ----------
